&NACIETEO
/
&NACOBS
/
&NACTAN
/
&NACTEX
/
&NACVEG
/
&NADOCK
/
&NAEAEM7
/
&NAEAER
/
&NAECOAPHY
/
&NAEPHLI
/
&NAEPHY
/
&NAERAD
  LRRTM=.F.,
  LSRTM=.F.,
  NMCICA=0,
/
&NAERCLI
/
&NAETLDIAG
/
&NAEVOL
/
&NAIMPO
/
&NALORI
/
&NAMACV
/
&NAMAERDET
/
&NAMAFN
  GFP_10U%IBITS=12,
  GFP_10V%IBITS=12,
  GFP_2T%IBITS=12,
  GFP_CAPE%IBITS=16,
  GFP_CCC%IBITS=16,
  GFP_CCP%IBITS=16,
  GFP_CCSF%IBITS=16,
  GFP_CLSP%IBITS=16,
  GFP_CLSS%IBITS=16,
  GFP_HCC%IBITS=8,
  GFP_LCC%IBITS=8,
  GFP_MCC%IBITS=8,
  GFP_TCC%IBITS=8,
  GFP_X10U%IBITS=12,
  GFP_X10V%IBITS=12,
  GFP_X2RH%IBITS=12,
  GFP_X2T%IBITS=12,
  GFP_XCAPE%IBITS=16,
  GFP_XCCC%IBITS=16,
  GFP_XCLPH%IBITS=12,
  GFP_XHCC%IBITS=8,
  GFP_XLCC%IBITS=8,
  GFP_XMCC%IBITS=8,
  GFP_XMOCO%IBITS=16,
  GFP_XN2T%CLNAME='CLSMINI.H.TEMPER',
  GFP_XN2T%IBITS=12,
  GFP_XTCC%IBITS=8,
  GFP_XUGST%IBITS=12,
  GFP_XVGST%IBITS=12,
  GFP_XX2T%CLNAME='CLSMAXI.H.TEMPER',
  GFP_XX2T%IBITS=12,
  TFP_ETH%IBITS=12,
  TFP_FGST%IBITS=12,
  TFP_HCLP%CLNAME='CLPMHAUT.MOD.XFU',
  TFP_HU%CLNAME='HUMI_RELATIVE',
  TFP_HU%IBITS=12,
  TFP_MSL%CLNAME='MSLPRESSURE',
  TFP_MSL%IBITS=12,
  TFP_PV%IBITS=16,
  TFP_T%CLNAME='TEMPERATURE',
  TFP_T%IBITS=12,
  TFP_THPW%CLNAME='THETA_P_W',
  TFP_THPW%IBITS=12,
  TFP_U%CLNAME='WIND_U_COMPONENT',
  TFP_U%IBITS=12,
  TFP_V%CLNAME='WIND_V_COMPONENT',
  TFP_V%IBITS=12,
  TFP_VV%CLNAME='VITESSE_VERTICALE',
  TFP_VV%IBITS=16,
  TFP_Z%CLNAME='GEOPOTENTIEL',
  TFP_Z%IBITS=16,
/
&NAMARG
  CNMEXP='ALR4',
  LECMWF=.F.,
  LELAM=.T.,
  LSLAG=.T.,
  NCONF=1,
  NSUPERSEDE=1,
/
&NAMARPHY
/
&NAMCA
/
&NAMCAPE
/
&NAMCFU
  LCUMFU=.T.,
  LFPLC=.T.,
  LFPLS=.T.,
  LFR=.T.,
  LFSF=.T.,
  LRAYD=.T.,
  LRAYS=.T.,
  LSTRD=.T.,
  LSTRT=.T.,
/
&NAMCHEM
/
&NAMCHET
/
&NAMCHK
/
&NAMCLA
/
&NAMCLDDET
/
&NAMCLDP
/
&NAMCLI
/
&NAMCLOP15
/
&NAMCLTC
/
&NAMCOK
/
&NAMCOM
/
&NAMCOMPO
/
&NAMCOSJO
/
&NAMCT0
  LFBDAP=.T.,
  LFDBOP=.F.,
  LNHEE=.T.,
  LGRIB_API=.T.,
  LREGETA=.F.,
  LRPLANE=.T.,
  LSPRT=.T.,
  LTWOTL=.T.,
  NFRGDI=5,
  NFRHIS=1,
  NFRPOS=1,
  NFRSDI=1,
  NHISTS=-13,-0,-1,-2,-3,-4,-5,-6,-7,-8,-9,-10,-11,-12,
  NPOSTS=-13,-0,-1,-2,-3,-4,-5,-6,-7,-8,-9,-10,-11,-12,
  NSPPR=0,
  NFPOS=1,
  NPOSTS(0)=-25,-00,-00,-00,-00,-01,-01,-01,-01,-02,-02,-02,-02,-03,-03,-03,-03,-04,-04,-04,-04,-05,-05,-05,-05,-06,-06,-06,-06,
  NPOSTSMIN(0)=25,00,15,30,45,00,15,30,45,00,15,30,45,00,15,30,45,00,15,30,45,00,15,30,45,
/
&NAMCT1
  LRFILAF=.F.,
  N1RES=0,
/
&NAMCUMF
/
&NAMCUMFS
/
&NAMCVER
  LVERTFE=.F.,
/
&NAMCVMNH
/
&NAMDDH
/
&NAMDFI
  LADIFH=.T.,
  NEDFI=7,    ! recommended
  NSTDFI=8,   ! >=0.3465*TAUS/TSTEP
  NTPDFI=4,   ! recommended
  RTDFI=90,
  TAUS=720,   ! periods lower then TAUS are cutted off
/
&NAMDIM
  NPROMA=-16,
/
&NAMDIMO
/
&NAMDIM_TRAJ
/
&NAMDPHY
 NCSNEC=1,
/
&NAMDVISI
/
&NAMDYN
  LADVF=.T.,
  LQMHT=.F.,
  LQMHW=.F.,
  LQMP=.F.,
  NITMP=4,
  NSITER=1,
  NSPDLAG=3,
  NSVDLAG=3,
  NTLAG=3,
  NVLAG=3,
  NWLAG=3,
  RDAMPDIV=5.,
  RDAMPDIVS=10.,
  RDAMPPD=5.,
  RDAMPQ=20.,
  RDAMPT=20.,
  RDAMPVD=20.,
  RDAMPVDS=15.,
  RDAMPVOR=5.,
  RDAMPVORS=10.,
  REPS1=0.,
  REPS2=0.,
  REPSM1=0.,
  REPSM2=0.,
  REPSP1=0.,
  REXPDH=2.,
  SDRED=1.,
  SIPR=90000.,
  SITR=350.,
  SITRA=100.,
  SLEVDH=0.5,
  SLEVDHS=1.,
  SLHDA0=0.25,
  SLHDB=4.,
  SLHDD00=6.5E-05,
  VESL=0.,
  VMAX2=280.,
  XIDT=0.0,
  ZSLHDP1=1.7,
  ZSLHDP3=0.6,
/
&NAMDYNA
  LGWADV=.T.,
  LNESC=.T.,
  LNESCT=.F.,
  LNESCV=.F.,
  LPC_CHEAP=.T.,
  LPC_FULL=.T.,
  LRDBBC=.F.,
  LSETTLS=.F.,
  LSETTLST=.T.,
  LSETTLSV=.T.,
  LSLHD_GFL=.T.,
  LSLHD_OLD=.F.,
  LSLHD_SPD=.T.,
  LSLHD_SVD=.T.,
  LSLHD_T=.T.,
  LSLHD_W=.T.,
  ND4SYS=1,
  NDLNPR=1,
  NPDVAR=2,
  NVDVAR=4,
  SLHDEPSH=0.016,
  SLHDEPSV=0.0,
  SLHDKMAX=6.,
  SLHDKMIN=-0.6,
/
&NAMDYNCORE
/
&NAMEMIS_CONF
/
&NAMENKF
/
&NAMENSCOV
/
&NAMFA
  NBITCS=-1,
  NBITPG=-1,
  NSTRON=-1,
  LEXTERN=.TRUE.,     !direct grib generation
/
&NAMFAINIT
/
&NAMFPC
   CFP2DF='MSLPRESSURE',
  'SURFCAPE.POS.F00',
  'SURFCIEN.POS.F00',
  'SURFPRESSION',
  CFP3DF='WIND_U_COMPONENT',
  'WIND_V_COMPONENT',
  'TEMPERATURE',
  'HUMI_RELATIVE',
  'VITESSE_VERTICALE',
  'GEOPOTENTIEL',
  'THETA_P_W',
  'HUMI.SPECIFI',
  'TKE',
  'ISOT_ALTIT',
  'SIM_REFLECTI',
  CFPCFU='SURFPREC.EAU.CON',
  'SURFPREC.EAU.GEC',
  'SURFPREC.NEI.CON',
  'SURFPREC.NEI.GEC',
  'SURFFLU.RAY.SOLA',
  'SURFFLU.RAY.THER',
  'SURFRAYT SOLA DE',
  'SURFRAYT THER DE',
  'SURFRAYT DIR SUR',
  'SURFRAYT SOL CL ',
  'SOMMRAYT SOL CL ',
  'SURFRAYT THER CL',
  'SOMMRAYT THER CL',
  CFPDOM(1)='GRB2',
  CFPFMT='LELAM',
  CFPPHY='SURFGEOPOTENTIEL',
  'SURFTEMPERATURE',
  'SURFRESERV.NEIGE',
  CFPXFU='SURFNEBUL.TOTALE',
  'CLSTEMPERATURE',
  'CLSVENT.ZONAL',
  'CLSVENT.MERIDIEN',
  'SURFNEBUL.CONVEC',
  'SURFNEBUL.HAUTE',
  'SURFNEBUL.MOYENN',
  'SURFNEBUL.BASSE',
  'CLSHUMI.RELATIVE',
  'SURFCAPE.MOD.XFU',
  'CLPMOCON.MOD.XFU',
  'CLPMHAUT.MOD.XFU',
  'CLPVEIND.MOD.XFU',
  LTRACEFP=.T.,
  LFPCAPEX=.T.,
  LFPMOIS=.F.,
  NFITP=1,
  NFPCAPE=1,
  RFP3H= 300., 600., 900., 1200.,
  RFP3P= 10000.,
  15000.,
  17500.,
  20000.,
  22500.,
  25000.,
  27500.,
  30000.,
  35000.,
  40000.,
  50000.,
  60000.,
  65000.,
  70000.,
  75000.,
  80000.,
  82500.,
  85000.,
  87500.,
  90000.,
  92500.,
  95000.,
  97500.,
  100000.,
  RFP3PV(1)=0.0000015,
  RFP3I(1)=-273.15,
  RFPCD2=15.0,
  RFPCORR=50000.,
  RFPCSAB=100.0,
  NFPGRIB=141,          !direct grib generation
  !NFPGRIB=224,          !direct grib generation second order ?
  !NFPGRIB=4,          !no packing
  !NFPGRIB=121,          !direct grib generation simple ?
  L_READ_MODEL_DATE=.T.,
/
&NAMFPD
/
&NAMFPDY2
/
&NAMFPDYF
/
&NAMFPDYH
/
&NAMFPDYI
/
&NAMFPDYP
/
&NAMFPDYS
/
&NAMFPDYT
/
&NAMFPDYV
/
&NAMFPF
/
&NAMFPG
/
&NAMFPIOS
  NFPXFLD=200,
/
&NAMFPMOVE
/
&NAMFPOBJ
/
&NAMFPPHY
/
&NAMFPSC2
  NFPROMA=-50,
/
&NAMFPSC2_DEP
  NFPROMA_DEP=-50,
/
&NAMGEM
/
&NAMGFL
  YA_NL%LADV=.F.,
  YA_NL%LGP=.T.,
  YA_NL%LREQOUT=.T.,
  YA_NL%NREQIN=0,
  YCPF_NL%NREQIN=0,
  YDAL_NL%LADV=.T.,
  YDAL_NL%LGP=.T.,
  YDAL_NL%LPC=.T.,
  YDAL_NL%LQM=.F.,
  YDAL_NL%LQMH=.F.,
  YDAL_NL%LREQOUT=.F.,
  YDAL_NL%LSLHD=.F.,
  YDAL_NL%NREQIN=0,
  YDOM_NL%LADV=.T.,
  YDOM_NL%LGP=.T.,
  YDOM_NL%LPC=.T.,
  YDOM_NL%LQM=.F.,
  YDOM_NL%LQMH=.F.,
  YDOM_NL%LREQOUT=.T.,
  YDOM_NL%LSLHD=.F.,
  YDOM_NL%NREQIN=1,
  YFQTUR_NL%LADV=.F.,
  YFQTUR_NL%LGP=.T.,
  YFQTUR_NL%LREQOUT=.T.,
  YFQTUR_NL%NREQIN=0,
  YFSTUR_NL%LADV=.F.,
  YFSTUR_NL%LGP=.T.,
  YFSTUR_NL%LREQOUT=.F.,
  YFSTUR_NL%NREQIN=0,
  YI_NL%LADV=.T.,
  YI_NL%LGP=.T.,
  YI_NL%LGPINGP=.F.,
  YI_NL%LPC=.T.,
  YI_NL%LQM=.F.,
  YI_NL%LQMH=.F.,
  YI_NL%LREQOUT=.T.,
  YI_NL%LSLHD=.T.,
  YI_NL%LSP=.F.,
  YI_NL%NCOUPLING=0,
  YI_NL%NREQIN=1,
  YL_NL%LADV=.T.,
  YL_NL%LGP=.T.,
  YL_NL%LGPINGP=.F.,
  YL_NL%LPC=.T.,
  YL_NL%LQM=.F.,
  YL_NL%LQMH=.F.,
  YL_NL%LREQOUT=.T.,
  YL_NL%LSLHD=.T.,
  YL_NL%LSP=.F.,
  YL_NL%NCOUPLING=0,
  YL_NL%NREQIN=1,
  YQ_NL%LADV=.T.,
  YQ_NL%LGP=.F.,
  YQ_NL%LGPINGP=.F.,
  YQ_NL%LPC=.T.,
  YQ_NL%LHV=.F.,
  YQ_NL%LQM=.F.,
  YQ_NL%LQMH=.F.,
  YQ_NL%LREQOUT=.T.,
  YQ_NL%LSLHD=.T.,
  YQ_NL%LSP=.T.,
  YQ_NL%LVSPLIP=.F.,
  YR_NL%LADV=.T.,
  YR_NL%LGP=.T.,
  YR_NL%LGPINGP=.F.,
  YR_NL%LPC=.T.,
  YR_NL%LQM=.F.,
  YR_NL%LQMH=.F.,
  YR_NL%LREQOUT=.T.,
  YR_NL%LSLHD=.F.,
  YR_NL%LSP=.F.,
  YR_NL%NCOUPLING=0,
  YR_NL%NREQIN=1,
  YSHTUR_NL%LADV=.F.,
  YSHTUR_NL%LGP=.T.,
  YSHTUR_NL%LREQOUT=.F.,
  YSHTUR_NL%NREQIN=0,
  YSPF_NL%NREQIN=0,
  YS_NL%LADV=.T.,
  YS_NL%LGP=.T.,
  YS_NL%LGPINGP=.F.,
  YS_NL%LPC=.T.,
  YS_NL%LQM=.F.,
  YS_NL%LQMH=.F.,
  YS_NL%LREQOUT=.T.,
  YS_NL%LSLHD=.F.,
  YS_NL%LSP=.F.,
  YS_NL%NCOUPLING=0,
  YS_NL%NREQIN=1,
  YG_NL%LSP=.F.,        !ALARO-0: microphysics graupel
  YG_NL%LGP=.T.,         !ALARO-0: microphysics graupel
  YG_NL%LGPINGP=.F.,    !ALARO-0: microphysics graupel
  YG_NL%LADV=.T.,        !ALARO-0: microphysics graupel
  YG_NL%LPC=.T.,       !DBG ALARO-0: microphysics graupel; to by cycled in assim
  YG_NL%NREQIN=1,       !DBG ALARO-0: microphysics graupel; to by cycled in assim
  !YG_NL%REFVALI=0.,
  YG_NL%LREQOUT=.T.,    !ALARO-0: microphysics graupel; to by cycled in assim miso canari
  YG_NL%NCOUPLING=0,        !ALARO-0: microphysics graupel
  YG_NL%LSLHD=.F.,      !ALARO-0: microphysics graupel
  YG_NL%LQM=.F.,        !ALARO-0: microphysics graupel
  YG_NL%LQMH=.F.,       !ALARO-0: microphysics graupel
  YTKE_NL%LADV=.T.,
  YTKE_NL%LCDERS=.F.,
  YTKE_NL%LGP=.T.,
  YTKE_NL%LGPINGP=.F.,
  YTKE_NL%LPC=.T.,
  YTKE_NL%LHV=.F.,
  YTKE_NL%LQM=.F.,
  YTKE_NL%LQMH=.F.,
  YTKE_NL%LREQOUT=.T.,
  YTKE_NL%LSLHD=.T.,
  YTKE_NL%LSP=.F.,
  YTKE_NL%LT5=.F.,
  YTKE_NL%LVSPLIP=.F.,
  YTKE_NL%NCOUPLING=0,
  YTKE_NL%NREQIN=1,
  YTTE_NL%LADV=.T.,
  YTTE_NL%LGP=.T.,
  YTTE_NL%LPC=.T.,
  YTTE_NL%LREQOUT=.T.,
  YTTE_NL%LSLHD=.T.,
  YTTE_NL%NREQIN=0,
  YUAL_NL%LADV=.T.,
  YUAL_NL%LGP=.T.,
  YUAL_NL%LPC=.T.,
  YUAL_NL%LQM=.F.,
  YUAL_NL%LQMH=.F.,
  YUAL_NL%LREQOUT=.T.,
  YUAL_NL%LSLHD=.F.,
  YUAL_NL%NREQIN=1,
  YUEN_NL%LADV=.F.,
  YUEN_NL%LGP=.T.,
  YUEN_NL%LREQOUT=.T.,
  YUEN_NL%NREQIN=0,
  YUNEBH_NL%LADV=.T.,
  YUNEBH_NL%LGP=.T.,
  YUNEBH_NL%LPC=.T.,
  YUNEBH_NL%LREQOUT=.T.,
  YUNEBH_NL%NREQIN=0,
  YUOM_NL%LADV=.T.,
  YUOM_NL%LGP=.T.,
  YUOM_NL%LPC=.T.,
  YUOM_NL%LQM=.F.,
  YUOM_NL%LQMH=.F.,
  YUOM_NL%LREQOUT=.T.,
  YUOM_NL%LSLHD=.F.,
  YUOM_NL%NREQIN=1,
/
&NAMGRIB
 NCYCLE=48,
/
&NAMGWD
/
&NAMGWDIAG
/
&NAMGWWMS
/
&NAMHCP
/
&NAMIAU
/
&NAMICE
/
&NAMINI
  LDFI=.F.,
/
&NAMINTFLEX
/
&NAMIOMI
/
&NAMIOS
/
&NAMIO_SERV
/
&NAMJBCODES
/
&NAMJBHYBACV
/
&NAMJG
/
&NAMLCZ
/
&NAMLIMA
/
&NAMLSFORC
/
&NAMMARS
/
&NAMMCC
/
&NAMMCUF
/
&NAMMETHOX
/
&NAMMKODB
/
&NAMMODERR
/
&NAMMTS
/
&NAMMWAVE
/
&NAMNORGWD
/
&NAMNPROF
/
&NAMNUD
/
&NAMOBS
/
&NAMOOPS
/
&NAMOPH
  CFNHWF='ECHALAD',
  LINC=.T.,
  NTIMEFMT=1,  !activation of ":MM" tag in the output filename
/
&NAMOPTCMEM
/
&NAMPAR0
  MBX_SIZE=1024000000,
  MP_TYPE=2,
  NOUTPUT=1,
  NPRINTLEV=1,
  NPROC=128,
/
&NAMPAR1
  LEQ_REGIONS=.F.,
  LSPLIT=.F.,
  NCOMBFLEN=8000000,
  NSTRIN=128,
  NSTROUT=128,
/
&NAMPARAR
/
&NAMPHMSE
/
&NAMPHY
  CGMIXLEN='EL0',
  CGTURS='MD2',
  L3MT=.T.,
  LA0MPS=.T.,
  LAB12=.T.,
  LAERODES=.T.,
  LAEROLAN=.T.,
  LAEROSEA=.T.,
  LAEROSOO=.T.,
  LARPMPS=.F.,
  LCDDPRO=.T.,
  LCLSATUR=.T.,
  LCOEFKSURF=.T.,
  LCOEFKTKE=.T.,
  LCOEFK_F1=.T.,
  LCOEFK_FLX=.T.,
  LCOEFK_MSC=.T.,
  LCOEFK_PTTE=.T.,
  LCOEFK_RIS=.F.,
  LCOEFK_SCQ=.T.,
  LCOEFK_TOMS=.T.,
  LCOMOD=.F.,
  LCONDWT=.T.,
  LCVGQM=.T.,
  LCVPPKF=.F.,
  LCVPRO=.T.,
  LCVRA=.F.,
  LDIFCONS=.T.,
  LENTCH=.T.,
  LFPCOR=.T.,
  LFSFIX=.F.,
  LFSVAR=.T.,
  LGLT=.F.,
  LGWD=.F.,
  LHUCN=.T.,
  LNEBCV=.T.,
  LNEBNXR=.T.,
  LNEB_FP=.F.,
  LNEWD=.T.,
  LNEWSTAT=.T.,
  LNOIAS=.T.,
  LO3ABC=.T.,
  LPHSPSH=.T.,
  LPRGML=.T.,
  LPTKE=.T.,
  LQXRTGH=.T.,
  LRAY=.T.,
  LRAYFM=.F.,
  LRAYLU=.F.,
  LRNUEXP=.T.,
  LRNUMX=.T.,
  LRPROX=.F.,
  LRRGUST=.T.,
  LRSTAER=.F.,
  LRTPP=.T.,
  LRTRUEDIR=.T.,
  LSCMF=.T.,
  LSEDCL=.T.,
  LSEDLAG=.F.,
  LSEDSTA=.T.,
  LSTRA=.F.,
  LSTRAPRO=.F.,
  LGRAPRO=.F.,
  LVFULL=.F.,
  LVGSN=.T.,
  LVOIGT=.T.,
  LXRCDEV=.T.,
  LZ0HSREL=.T.,
  NDIFFNEB=1,
  NIMELIT=2,
  NPHYREP=-4,
  NRAUTOEV=3,
  NRAY=2,
  NSORAYFR=-1,
  NTHRAYFR=-1,
/
&NAMPHY0
  ALMAV=200.,
  BEDIFV=0.1,
  C3TKEFREE=1.183,
  C_EPSILON=0.871,
  EDD=1.,
  ETKE_BETA_EPS=0.05,
  ETKE_LAM0=0.29,
  ETKE_OLAM=0.29,
  ETKE_DELTA=0.3,
  GCISMIN=5.5E-04,
  GCVACHI=20.,
  GCVALFA=4.5E-05,
  GCVNU=1.E-05,
  GCVPSI=1.,
  GCVPSIE=1.,
  GCVTAUDE=900.,
  GDDEVF=0.043,
  GENVSRH=1.,
  GPEFDC=0.18,
  GWDCD=5.4,
  GWDLT=1.,
  GWDSE=0.02,
  GWDVALI=0.5,
  HUCOE=1.,
  HUCRED=1.2,
  HUTIL2=0.5,
  NUPTKE=0.5265,
  QSMODC=4.,
  QSSC=400.,
  QSSUSC=0.75,
  QSSUSS=0.4,
  QSSUSV=250.,
  QSUSXC=0.0002,
  QSUSXS=0.0003,
  QXRAL=150.,
  QXRAL_ADJ=150.,
  QXRDEL=0.5,
  QXRR=0.25,
  QXRTGH=2.,
  RAUTEFR=0.5E-03,
  RAUTEFS=2.E-03,
  RCIN=1.,
  RCVEVAP=0.25,
  RDECRD=0.,
  RDECRDRED=0.4,
  REFLKUO=5000.,
  REVASX=2.E-07,
  REVGSL=15.,
  RMULACVG=5.5,
  RPHI0=1500.,
  RQICRMAX=5.E-05,
  RQICRMIN=8.E-07,
  RQLCR=3.E-04,
  RWBF1=1600.,
  SCLESPS=5100.,
  TDDFR=0.0012,
  TDDGP=0.8,
  TENTR=5.E-06,
  TENTRD=1.6E-04,
  TENTRX=1.6E-04,
  TFVI=0.08,
  TFVL=0.02,
  VZ0CM=1.0E-04,
  VZIUSTAR0=12.,
/
&NAMPHY1
  ACLS_HS=1.,
  ALRCN2=10.,
  LCLS_HS=.T.,
  RCTVEG(3)=1.4E-05,
  RCTVEG(4)=1.1E-05,
  WCRIN=4.,
/
&NAMPHY2
  FACRAF=3.5,
  LMULAF=.F.,
  XDAMP=1.,
  XMULAF=0.,
  LRAFTUR=.FALSE.,
  LRAFTKE=.TRUE.,
/
&NAMPHY3
  FCM_NU_DI=0.,
  FCM_NU_DL=0.,
  RLAMB_SOLID=0.6,
/
&NAMPHYDS
/
&NAMPPC
/
&NAMPPVI
/
&NAMPRE
/
&NAMRAD15
/
&NAMRADCMEM
/
&NAMRCF
/
&NAMRCOEF
/
&NAMRES
/
&NAMRGRI
/
&NAMRINC
/
&NAMRIP
  CSTOP='h12',
  TSTEP=90,
/
&NAMRIP0
/
&NAMRLX
/
&NAMSATS
/
&NAMSATSIM
/
&NAMSCC
/
&NAMSCEN
/
&NAMSCM
/
&NAMSEKF
/
&NAMSENS
/
&NAMSIMPHL
/
&NAMSPNG
/
&NAMSPP
/
&NAMSPSDT
/
&NAMSTA
/
&NAMSTOPH
/
&NAMSWE
/
&NAMTESTVAR
/
&NAMTHLIM
/
&NAMTOPH
  ETCVIM=0.,
  ETNEBU=0.,
  ETPLUI=0.,
  XDRMTK=6.E-08,
  XDRMTP=800.,
  XDRMUK=3.E-07,
  XDRMUP=800.,
/
&NAMTRAJ
/
&NAMTRAJP
/
&NAMTRANS
 LFFTW=.TRUE.,
/
&NAMTRANS0
/
&NAMVAR
/
&NAMVARBC
/
&NAMVARBC_AIREP
/
&NAMVARBC_ALLSKY
/
&NAMVARBC_GBRAD
/
&NAMVARBC_RAD
/
&NAMVARBC_SFCOBS
/
&NAMVARBC_TCWV
/
&NAMVARBC_TO3
/
&NAMVAREPS
/
&NAMVDF
/
&NAMVDOZ
/
&NAMVOLCANO
/
&NAMVRTL
/
&NAMVV0
/
&NAMVV1
/
&NAMVWRK
/
&NAMWAVELETJB
/
&NAMXFU
  LXCLP=.T.,
  LXCLS=.T.,
  LXFU=.T.,
  LXICV=.T.,
  LXNEBPA=.T.,
  LXNEBTT=.T.,
  LXQCLS=.T.,
  LXTGST=.T.,
  LXTTCLS=.T.,
  NFRRAZ=1,
  NRAZTS=-13,-0,-1,-2,-3,-4,-5,-6,-7,-8,-9,-10,-11,-12,
/
&NAM_CANAPE
/
&NAM_DISTRIBUTED_VECTORS
/
&NAPHLC
/
&NEMCT0
/
&NEMDIM
/
&NEMDYN
/
&NEMELBC0A
  LQCPL=.T.,
  NBICNHX=2,
  NBICOP=2,
  NBICOT=2,
  NBICOU=2,
  NBICPD=2,
  NBICVD=2,
  NECRIPL=1,
/
&NEMELBC0B
  TEFRCL=10800,
/
&NEMFPEZO
/
&NEMGEO
/
&NEMJK
/
&NEMVAR
/
&NEMWAVELET
/
&NAMCMEM_MW
/
&NAMNUDGLH
/
&NAMVARBC_MODES
/
&NAMPERTPAR
/
